Version 4
SHEET 1 1060 680
WIRE 400 -128 336 -128
WIRE 400 -96 400 -128
WIRE 400 -80 400 -96
WIRE 336 16 336 -128
WIRE 336 16 160 16
WIRE 160 64 160 16
WIRE 336 64 336 16
WIRE 336 208 336 144
WIRE 464 208 336 208
WIRE 656 208 560 208
WIRE 736 208 656 208
WIRE 656 240 656 208
WIRE 736 240 736 208
WIRE -16 256 -96 256
WIRE 160 256 160 144
WIRE 160 256 48 256
WIRE 272 256 160 256
WIRE -96 320 -96 256
WIRE 160 320 160 256
WIRE 336 320 336 304
WIRE 544 320 336 320
WIRE 656 320 656 304
WIRE 736 320 656 320
WIRE 336 336 336 320
WIRE 544 336 544 320
WIRE 736 336 736 320
WIRE -96 448 -96 400
WIRE 96 448 -96 448
WIRE 160 448 160 400
WIRE 160 448 96 448
WIRE 336 448 336 416
WIRE 336 448 160 448
WIRE 544 448 544 400
WIRE 544 448 336 448
WIRE 736 448 736 416
WIRE 736 448 544 448
WIRE 96 480 96 448
FLAG 96 480 0
FLAG 400 -16 0
SYMBOL npn 272 208 R0
SYMATTR InstName T
SYMATTR Value BC847B
SYMBOL voltage -96 304 R0
WINDOW 123 24 124 Left 2
WINDOW 39 0 0 Left 0
SYMATTR Value2 AC 20m
SYMATTR InstName V1
SYMATTR Value SINE(0 20m 440)
SYMBOL voltage 400 -112 R0
WINDOW 123 0 0 Left 0
WINDOW 39 0 0 Left 0
SYMATTR InstName V2
SYMATTR Value 9
SYMBOL res 320 320 R0
SYMATTR InstName Re
SYMATTR Value 1
SYMBOL res 144 48 R0
SYMATTR InstName R1
SYMATTR Value 37560
SYMBOL res 144 304 R0
SYMATTR InstName R2
SYMATTR Value 35760
SYMBOL res 320 48 R0
SYMATTR InstName Rc
SYMATTR Value 12
SYMBOL res 720 224 R0
SYMATTR InstName Rl
SYMATTR Value 5.6
SYMBOL res 720 320 R0
SYMATTR InstName speaker
SYMATTR Value 10
SYMATTR SpiceLine pwr=1
SYMBOL cap 48 240 R90
WINDOW 0 0 32 VBottom 2
WINDOW 3 32 32 VTop 2
SYMATTR InstName C1
SYMATTR Value 100µ
SYMBOL cap 560 400 R180
WINDOW 0 34 43 Left 2
WINDOW 3 24 8 Left 2
SYMATTR InstName C2
SYMATTR Value 940µ
SYMBOL cap 640 240 R0
WINDOW 0 19 8 Left 2
WINDOW 3 -9 57 Left 2
SYMATTR InstName C3
SYMATTR Value 940µ
SYMBOL potentiometer 512 192 R270
WINDOW 39 -32 0 VBottom 2
WINDOW 0 32 0 VTop 2
SYMATTR SpiceLine R = 10k val = 0
SYMATTR InstName X1
TEXT -128 504 Left 2 !.tran 20m
TEXT -224 112 Left 2 ;R1 = 37658 ~ 22k+15k+ 560
TEXT 160 488 Left 2 ;R2 = 35761.5 ~ 33k + 2k2 + 560
