Version 4
SHEET 1 880 680
WIRE 320 112 64 112
WIRE 64 128 64 112
WIRE 224 208 64 208
WIRE 320 208 320 176
WIRE 320 208 224 208
WIRE 224 224 224 208
FLAG 224 224 0
SYMBOL LED 304 112 R0
SYMATTR InstName D1
SYMATTR Value NSCW100
SYMBOL voltage 64 112 R0
WINDOW 123 0 0 Left 0
WINDOW 39 24 124 Left 2
SYMATTR InstName V1
SYMATTR Value 12
SYMATTR SpiceLine Rser=0.1
TEXT 30 264 Left 2 !.tran 2
