Version 4
SHEET 1 880 680
WIRE -80 -32 -208 -32
WIRE 240 -32 -80 -32
WIRE 240 64 240 -32
WIRE -80 80 -80 48
WIRE -208 128 -208 -32
WIRE -80 224 -80 160
WIRE 48 224 -80 224
WIRE 192 224 192 128
WIRE 192 224 112 224
WIRE -80 320 -80 288
WIRE 240 320 240 128
WIRE 240 320 -80 320
WIRE -208 384 -208 208
WIRE 64 384 -208 384
WIRE 240 384 240 320
WIRE 240 384 144 384
WIRE -208 400 -208 384
FLAG -208 400 0
SYMBOL Misc\\TRIAC 208 64 R0
SYMATTR InstName U1
SYMBOL res -96 -48 R0
SYMATTR InstName R1
SYMATTR Value 243K
SYMATTR SpiceLine tol=1 pwr=0.1
SYMBOL cap -96 224 R0
SYMATTR InstName C1
SYMATTR Value 100n
SYMBOL Misc\\DIAC 112 192 R90
WINDOW 0 0 32 VBottom 2
WINDOW 3 64 32 VTop 2
SYMATTR InstName U2
SYMBOL res -96 64 R0
SYMATTR InstName R2
SYMATTR Value 10K
SYMBOL res 160 368 R90
WINDOW 0 0 56 VBottom 2
WINDOW 3 32 56 VTop 2
SYMATTR InstName SUGAR_HEATER
SYMATTR Value 15
SYMBOL voltage -208 112 R0
WINDOW 0 -49 7 Left 2
WINDOW 3 -97 105 Left 2
WINDOW 123 0 0 Left 0
WINDOW 39 0 0 Left 0
SYMATTR InstName V1
SYMATTR Value SINE(0 230 50)
TEXT -306 434 Left 2 !.tran 1
