Version 4
SHEET 1 1308 680
WIRE 0 144 -112 144
WIRE 112 144 0 144
WIRE 160 176 160 144
WIRE 352 176 160 176
WIRE -112 192 -112 144
WIRE 0 192 0 144
WIRE 352 208 352 176
WIRE 352 208 336 208
WIRE 512 208 352 208
WIRE 512 240 512 208
WIRE 128 288 128 144
WIRE 256 288 256 208
WIRE 256 288 128 288
WIRE 352 288 352 208
WIRE -112 352 -112 272
WIRE 0 352 0 256
WIRE 0 352 -112 352
WIRE 128 352 0 352
WIRE 144 352 144 144
WIRE 144 352 128 352
WIRE 176 352 176 144
WIRE 176 352 144 352
WIRE 256 352 176 352
WIRE 352 352 256 352
WIRE 512 352 512 320
WIRE 512 352 352 352
WIRE 128 384 128 352
FLAG 128 384 0
SYMBOL LM2576HV 144 96 R0
SYMATTR InstName D1
SYMATTR Value LM2576HV_TRANS
SYMBOL voltage -112 176 R0
WINDOW 123 0 0 Left 0
WINDOW 39 0 0 Left 0
SYMATTR InstName V1
SYMATTR Value 52
SYMBOL res 496 224 R0
SYMATTR InstName output
SYMATTR Value 20
SYMBOL ind 352 192 R90
WINDOW 0 5 56 VBottom 2
WINDOW 3 32 56 VTop 2
SYMATTR InstName L1
SYMATTR Value 100µ
SYMBOL cap -16 192 R0
SYMATTR InstName Cin
SYMATTR Value 100µ
SYMBOL schottky 272 352 R180
WINDOW 0 24 64 Left 2
WINDOW 3 -27 27 Left 2
SYMATTR InstName D2
SYMATTR Value MBR735
SYMATTR Description Zener Diode
SYMATTR Type zener
SYMBOL cap 336 288 R0
SYMATTR InstName Cout
SYMATTR Value 1m
TEXT 80 -8 Left 2 !.tran 20m
TEXT 200 72 Left 2 !.lib D:\\Programs\\LTC\\LTSpice\\lib\\custom\\LM2576HV_PSPICE_TRANS\\LM2576HV_TRANS.LIB
