Version 4
SHEET 1 880 680
WIRE 240 80 64 80
WIRE 240 112 240 80
WIRE 64 128 64 80
WIRE 384 160 304 160
WIRE 64 272 64 208
WIRE 208 272 64 272
WIRE 240 272 240 208
WIRE 240 272 208 272
WIRE 208 288 208 272
FLAG 208 288 0
SYMBOL potentiometer 224 112 R0
SYMATTR InstName R1
SYMATTR SpiceLine ""
SYMATTR Value 10
SYMBOL voltage 64 112 R0
WINDOW 123 0 0 Left 0
WINDOW 39 0 0 Left 0
SYMATTR InstName V1
SYMATTR Value 10
TEXT 22 294 Left 2 !.tran 20m
