Version 4.1
SHEET 1 1248 680
WIRE 912 -208 272 -208
WIRE -464 -192 -704 -192
WIRE -80 -192 -464 -192
WIRE -80 -176 -80 -192
WIRE 0 -176 -80 -176
WIRE 912 -128 800 -128
WIRE -512 -112 -592 -112
WIRE -464 -112 -464 -192
WIRE -320 -112 -384 -112
WIRE 512 -112 384 -112
WIRE 624 -112 512 -112
WIRE -320 -96 -320 -112
WIRE -176 -96 -320 -96
WIRE 0 -96 -80 -96
WIRE 800 -96 800 -128
WIRE -704 -80 -704 -192
WIRE -592 -80 -592 -112
WIRE -512 -80 -512 -112
WIRE -320 -80 -320 -96
WIRE -80 -80 -80 -96
WIRE 272 -80 272 -208
WIRE 384 -80 384 -112
WIRE 512 -80 512 -112
WIRE 624 -80 624 -112
WIRE -368 0 -512 0
WIRE -176 0 -176 -96
WIRE -128 0 -176 0
WIRE 752 0 752 -16
WIRE 752 0 624 0
WIRE -704 48 -704 0
WIRE -592 48 -592 0
WIRE -592 48 -704 48
WIRE -320 48 -320 16
WIRE -320 48 -592 48
WIRE -80 48 -80 16
WIRE -80 48 -320 48
WIRE 272 48 272 0
WIRE 384 48 384 0
WIRE 384 48 272 48
WIRE 512 48 512 0
WIRE 512 48 384 48
WIRE 800 48 800 0
WIRE 800 48 512 48
WIRE -592 64 -592 48
WIRE 384 64 384 48
FLAG 384 64 0
FLAG -592 64 0
SYMBOL res -528 -96 R0
WINDOW 0 36 40 Invisible 2
WINDOW 3 39 60 Left 2
SYMATTR InstName R2
SYMATTR Value 1Meg
SYMBOL res -16 -192 R0
SYMATTR InstName speaker
SYMATTR Value 8
SYMBOL res -480 -96 R270
WINDOW 0 32 56 Invisible 2
WINDOW 3 66 59 VBottom 2
SYMATTR InstName R4
SYMATTR Value 1Meg
SYMBOL nmos -368 -80 R0
WINDOW 0 56 32 Invisible 2
SYMATTR InstName M1
SYMATTR Value IRFZ44N
SYMBOL nmos -128 -80 R0
WINDOW 0 56 32 Invisible 2
WINDOW 3 61 44 Left 2
SYMATTR InstName M2
SYMATTR Value IRFZ44N
SYMBOL res 608 -96 R0
WINDOW 0 36 40 Invisible 2
WINDOW 3 39 60 Left 2
SYMATTR InstName R1
SYMATTR Value 1Meg
SYMBOL res 896 -224 R0
WINDOW 0 36 40 Invisible 2
WINDOW 3 40 56 Left 2
SYMATTR InstName speaker2
SYMATTR Value 8
SYMBOL nmos 752 -96 R0
WINDOW 0 56 32 Invisible 2
WINDOW 3 59 50 Left 2
SYMATTR InstName M4
SYMATTR Value IRFZ44N
SYMBOL voltage -704 -96 R0
WINDOW 123 0 0 Left 0
WINDOW 39 0 0 Left 0
WINDOW 0 24 16 Invisible 2
WINDOW 3 4 8 Left 2
SYMATTR InstName V1
SYMATTR Value 12
SYMBOL voltage -592 -96 R0
WINDOW 123 0 0 Left 0
WINDOW 39 0 0 Left 0
WINDOW 0 24 16 Invisible 2
WINDOW 3 24 96 Invisible 2
SYMATTR InstName V2
SYMATTR Value SINE(2.5 2.5 3 0)
SYMBOL voltage 272 -96 R0
WINDOW 123 0 0 Left 0
WINDOW 39 0 0 Left 0
WINDOW 0 24 16 Invisible 2
WINDOW 3 7 6 Left 2
SYMATTR InstName V3
SYMATTR Value 12
SYMBOL voltage 384 -96 R0
WINDOW 123 0 0 Left 0
WINDOW 39 0 0 Left 0
WINDOW 0 24 16 Invisible 2
WINDOW 3 24 96 Invisible 2
SYMATTR InstName V4
SYMATTR Value SINE(2.5 2.5 3 0)
SYMBOL res 496 -96 R0
WINDOW 0 36 40 Invisible 2
WINDOW 3 37 58 Left 2
SYMATTR InstName R3
SYMATTR Value 1Meg
TEXT -624 104 Left 2 ;.tran 0 1s 0s 100m
TEXT 336 104 Left 2 !.tran 0 1s 0s 100m
TEXT -400 -320 Left 2 ;+12, +5, GND, +OUT, -OUT a connection to create a switch "in series" with load.
TEXT 456 -240 Left 2 ;Non inverting switch
TEXT -488 -224 Left 2 ;Inverting switch (measure output Amps based on V~)
TEXT -312 -80 Left 2 ;D
TEXT 808 -96 Left 2 ;D
TEXT -72 -80 Left 2 ;D
TEXT -312 24 Left 2 ;S
TEXT -72 16 Left 2 ;S
TEXT 808 8 Left 2 ;S
TEXT -384 -32 Left 2 ;G
TEXT -144 -32 Left 2 ;G
TEXT 736 -48 Left 2 ;G
TEXT 400 -80 Left 2 ;5~0
TEXT -584 -88 Left 2 ;5~0
