Version 4
SHEET 1 3624 680
WIRE 624 -192 400 -192
WIRE 960 -192 624 -192
WIRE 400 -96 400 -192
WIRE 624 -32 624 -192
WIRE 400 16 400 -16
WIRE 560 16 400 16
WIRE 960 48 960 -192
WIRE 256 64 176 64
WIRE 624 176 624 64
WIRE 176 368 176 144
WIRE 176 368 112 368
WIRE 400 368 400 112
WIRE 400 368 176 368
WIRE 624 368 624 256
WIRE 624 368 400 368
WIRE 960 368 960 128
WIRE 960 368 624 368
WIRE 112 432 112 368
FLAG 112 432 0
SYMBOL Misc\\battery 960 32 R0
WINDOW 123 0 0 Left 0
WINDOW 39 0 0 Left 0
SYMATTR InstName V1
SYMATTR Value 12V
SYMBOL res 608 160 R0
SYMATTR InstName Rout
SYMATTR Value 10
SYMBOL Misc\\signal 176 48 R0
WINDOW 123 0 0 Left 0
WINDOW 39 0 0 Left 0
WINDOW 3 -290 441 Left 2
SYMATTR Value PULSE(0 5 0 0 0 100m 200m 100)
SYMATTR InstName V2
SYMBOL npn 336 16 R0
SYMATTR InstName Q1
SYMBOL res 240 80 R270
WINDOW 0 32 56 VTop 2
WINDOW 3 0 56 VBottom 2
SYMATTR InstName R1
SYMATTR Value 2k
SYMBOL npn 560 -32 R0
SYMATTR InstName Q2
SYMBOL res 384 -112 R0
SYMATTR InstName R2
SYMATTR Value 100
TEXT 48 376 Left 2 !.tran 0 1 0 100m
